**************************************
*      Model Generated by MODPEX     *
*Copyright(c) Symmetry Design Systems*
*         All Rights Reserved        *
*    UNPUBLISHED LICENSED SOFTWARE   *
*   Contains Proprietary Information *
*      Which is The Property of      *
*     SYMMETRY OR ITS LICENSORS      *
*    Modeling services provided by   *
* Interface Technologies www.i-t.com *
**************************************
.MODEL Dmbr150rl d
+IS=6.47666e-09 RS=0.184739 N=0.832706 EG=0.673879
+XTI=0.05 BV=50 IBV=0.0001 CJO=2.81635e-10
+VJ=0.4 M=0.559152 FC=0.5 TT=0
+KF=0 AF=1
* Model generated on October 2, 2003
* Model format: PSpice
